code/cases/bench/bench_yunnan.raw
0,   100.00, 33, 0, 0, 50.00     / PSS(R)E-33.5    MON, DEC 25 2017  13:21
BENCHMARK OF RICH-HYDRO POWER GRID BASED ON YUNNAN
SHANDONG UNIVERSITY, LI CHANGGANG/LI HUARUI, 2017/12/24
     1,'µá¶«µç³§    ', 525.0000,3,  53,   1,   1,1.00000,   0.0000,1.10000,0.90000,1.10000,0.90000
     2,'ÓêÍúµç³§    ', 525.0000,1,  53,   1,   1,0.99566,   3.9468,1.10000,0.90000,1.10000,0.90000
     3,'µáÂÞÆ½      ', 525.0000,1,  53,   1,   1,0.99442,   3.9545,1.10000,0.90000,1.10000,0.90000
     4,'µáÂ³Î÷Õû    ', 525.0000,1,  53,   1,   1,0.98949,   4.4980,1.10000,0.90000,1.10000,0.90000
     5,'µáÂ³Î÷Äæ    ', 525.0000,1,  53,   1,   1,1.01111,   8.9585,1.10000,0.90000,1.10000,0.90000
     6,'¹ð°ÙÉ«      ', 525.0000,1,  45,   1,   1,1.00688,   5.2556,1.10000,0.90000,1.10000,0.90000
     7,'¹ðÆ½ºâ»ú    ', 525.0000,3,  45,   1,   1,1.00000,   0.0000,1.10000,0.90000,1.10000,0.90000
     8,'µáÇú¾¸      ', 525.0000,1,  53,   1,   1,0.99830,   7.9964,1.10000,0.90000,1.10000,0.90000
     9,'µáÇú¾¸2     ', 230.0000,1,  53,   1,   1,0.99378,   7.4674,1.10000,0.90000,1.10000,0.90000
    10,'µáÁúº£      ', 525.0000,1,  53,   1,   1,0.99802,  11.2942,1.10000,0.90000,1.10000,0.90000
    11,'µáÁúº£2     ', 230.0000,1,  53,   1,   1,0.99757,   9.7052,1.10000,0.90000,1.10000,0.90000
    12,'µá½Î×ÓÉ½    ', 230.0000,1,  53,   1,   1,0.99353,   8.4058,1.10000,0.90000,1.10000,0.90000
    13,'µá´äÉ½      ', 230.0000,1,  53,   1,   1,0.99360,   7.8611,1.10000,0.90000,1.10000,0.90000
    14,'µáÕ´Òæ      ', 230.0000,1,  53,   1,   1,0.99368,   7.7090,1.10000,0.90000,1.10000,0.90000
    15,'µáÈý²í      ', 230.0000,1,  53,   1,   1,0.99360,   7.4545,1.10000,0.90000,1.10000,0.90000
    16,'µáÖé½Ö      ', 230.0000,1,  53,   1,   1,0.99154,   7.3465,1.10000,0.90000,1.10000,0.90000
    17,'µáÇú³§      ', 230.0000,1,  53,   1,   1,0.98972,   7.6975,1.10000,0.90000,1.10000,0.90000
    18,'µá¼âÉ½      ', 230.0000,1,  53,   1,   1,0.99442,   8.6067,1.10000,0.90000,1.10000,0.90000
    19,'µáÏ²Æ½      ', 525.0000,1,  53,   1,   1,0.99887,   7.9274,1.10000,0.90000,1.10000,0.90000
    20,'µáÏ²Æ½2     ', 230.0000,1,  53,   1,   1,0.99620,   9.3377,1.10000,0.90000,1.10000,0.90000
    21,'µá»¨É½      ', 230.0000,1,  53,   1,   1,0.99482,   8.6823,1.10000,0.90000,1.10000,0.90000
    22,'µáºçÇÅ      ', 230.0000,1,  53,   1,   1,0.99451,   7.5598,1.10000,0.90000,1.10000,0.90000
    23,'µáÓÀ°²      ', 230.0000,1,  53,   1,   1,0.99585,   7.6529,1.10000,0.90000,1.10000,0.90000
    24,'µá¶àÀÖ      ', 525.0000,1,  53,   1,   1,1.00321,  10.0898,1.10000,0.90000,1.10000,0.90000
    25,'µá¶àÀÖ2     ', 230.0000,1,  53,   1,   1,0.99703,   7.8954,1.10000,0.90000,1.10000,0.90000
    26,'µáÓÀ·á      ', 525.0000,2,  53,   1,   1,1.00000,   9.8655,1.10000,0.90000,1.10000,0.90000
    27,'µáÓÀ·á2     ', 230.0000,1,  53,   1,   1,0.98614,   7.2009,1.10000,0.90000,1.10000,0.90000
    28,'µáÕÑÍ¨      ', 230.0000,1,  53,   1,   1,0.98356,   6.9155,1.10000,0.90000,1.10000,0.90000
    29,'µáÎ÷ÑÃÃÅ    ', 230.0000,1,  53,   1,   1,0.98357,   6.5191,1.10000,0.90000,1.10000,0.90000
    30,'µá´ó¹Ø      ', 230.0000,1,  53,   1,   1,0.98348,   6.2656,1.10000,0.90000,1.10000,0.90000
    31,'µá¸Ê¶¥      ', 525.0000,1,  53,   1,   1,1.00156,   9.3210,1.10000,0.90000,1.10000,0.90000
    32,'µá¸Ê¶¥2     ', 230.0000,1,  53,   1,   1,0.99274,   7.6397,1.10000,0.90000,1.10000,0.90000
    33,'µáÍþÐÅ³§    ', 525.0000,2,  53,   1,   1,1.00000,   9.9963,1.10000,0.90000,1.10000,0.90000
    34,'µáÈÙÐË      ', 525.0000,1,  53,   1,   1,0.99948,   9.7516,1.10000,0.90000,1.10000,0.90000
    35,'ÕòÐÛµç³§    ', 525.0000,1,  53,   1,   1,1.02001,   9.8951,1.10000,0.90000,1.10000,0.90000
    36,'µáÏªÂå¶É    ', 525.0000,2,  53,   1,   1,1.00000,  13.1631,1.10000,0.90000,1.10000,0.90000
    37,'µáÅ£Õ¯»»    ', 525.0000,1,  53,   1,   1,0.99754,   4.5718,1.10000,0.90000,1.10000,0.90000
    38,'ÔÁ´Ó»¯»»    ', 525.0000,1,  44,   1,   1,1.01399,   3.5385,1.10000,0.90000,1.10000,0.90000
    39,'ÔÁ´Ó»¯      ', 525.0000,3,  44,   1,   1,1.00000,   0.0000,1.10000,0.90000,1.10000,0.90000
    40,'¹ðÎäÆ½Ïç    ', 525.0000,3,  45,   1,   1,1.00000,   0.0000,1.10000,0.90000,1.10000,0.90000
    42,'µáÓÀÈÊ»»    ', 525.0000,1,  53,   1,   1,0.99715,  19.8179,1.10000,0.90000,1.10000,0.90000
    44,'µá¸»Äþ»»    ', 525.0000,1,  53,   1,   1,0.99932,   1.3107,1.10000,0.90000,1.10000,0.90000
    45,'µáÓÀÈÊ      ', 525.0000,1,  53,   1,   1,1.00091,  21.1463,1.10000,0.90000,1.10000,0.90000
    46,'µá¹ÛÒôÑÒ    ', 525.0000,2,  53,   1,   1,1.00000,  23.4671,1.10000,0.90000,1.10000,0.90000
    47,'µáÁú¿ª¿Ú    ', 525.0000,2,  53,   1,   1,1.00000,  27.1667,1.10000,0.90000,1.10000,0.90000
    48,'µáÂ³µØÀ­    ', 525.0000,2,  53,   1,   1,1.00000,  25.3901,1.10000,0.90000,1.10000,0.90000
    49,'µáÍ­¶¼      ', 525.0000,1,  53,   1,   1,1.00213,  11.8860,1.10000,0.90000,1.10000,0.90000
    50,'µáÓêÊ÷      ', 230.0000,2,  53,   1,   1,1.00000,  11.8656,1.10000,0.90000,1.10000,0.90000
    51,'µááÔÃ÷      ', 230.0000,1,  53,   1,   1,0.99773,  10.3298,1.10000,0.90000,1.10000,0.90000
    52,'µáÇåË®º£    ', 230.0000,2,  53,   1,   1,1.00000,   9.6603,1.10000,0.90000,1.10000,0.90000
    53,'µáÐÂ´å      ', 230.0000,1,  53,   1,   1,0.99897,   9.1489,1.10000,0.90000,1.10000,0.90000
    54,'¹ðÁøÖÝ      ', 525.0000,3,  45,   1,   1,1.00000,   0.0000,1.10000,0.90000,1.10000,0.90000
    55,'µá½ð¹Ù»»    ', 525.0000,1,  53,   1,   1,1.00382,  25.0408,1.10000,0.90000,1.10000,0.90000
    56,'¹ðÁøÖÝ»»    ', 525.0000,1,  45,   1,   1,0.98848,   4.7458,1.10000,0.90000,1.10000,0.90000
    57,'µáÐÂËÉ»»    ', 525.0000,1,  53,   1,   1,0.98883,  21.3885,1.10000,0.90000,1.10000,0.90000
    58,'ÔÁ¶«·½»»    ', 525.0000,1,  44,   1,   1,1.00330,  17.1217,1.10000,0.90000,1.10000,0.90000
    59,'µá½ð¹Ù      ', 525.0000,1,  53,   1,   1,1.00210,  29.9490,1.10000,0.90000,1.10000,0.90000
    60,'µáÀæÔ°      ', 525.0000,2,  53,   1,   1,1.00000,  38.8509,1.10000,0.90000,1.10000,0.90000
    61,'µá°¢º£      ', 525.0000,2,  53,   1,   1,1.00000,  36.5713,1.10000,0.90000,1.10000,0.90000
    62,'µáÌ«°²      ', 525.0000,2,  53,   1,   1,1.00000,  29.7253,1.10000,0.90000,1.10000,0.90000
    63,'µá½¨ÌÁ      ', 525.0000,2,  53,   1,   1,1.00000,  31.6453,1.10000,0.90000,1.10000,0.90000
    64,'µá»ÆÆº      ', 525.0000,2,  53,   1,   1,1.00000,  28.3127,1.10000,0.90000,1.10000,0.90000
    65,'µáÐÂËÉ      ', 525.0000,1,  53,   1,   1,0.99551,  30.5913,1.10000,0.90000,1.10000,0.90000
    66,'µáÍÐ°ÍË®    ', 525.0000,2,  53,   1,   1,1.00000,  36.1407,1.10000,0.90000,1.10000,0.90000
    67,'µáÃçÎ²Ë®    ', 525.0000,2,  53,   1,   1,1.00000,  37.8613,1.10000,0.90000,1.10000,0.90000
    68,'µá»ÆµÇË®    ', 525.0000,2,  53,   1,   1,1.00000,  35.8707,1.10000,0.90000,1.10000,0.90000
    69,'ÔÁ´ÔÁÖ      ', 525.0000,3,  44,   1,   1,1.00000,   0.0000,1.10000,0.90000,1.10000,0.90000
    70,'µá»ÆÆº2     ', 230.0000,1,  53,   1,   1,1.00124,  27.7965,1.10000,0.90000,1.10000,0.90000
    71,'µáº£¶«      ', 230.0000,1,  53,   1,   1,0.99879,  27.3698,1.10000,0.90000,1.10000,0.90000
    72,'µá´óÀí      ', 525.0000,2,  53,   1,   1,1.00000,  27.6286,1.10000,0.90000,1.10000,0.90000
    73,'µá´óÀí2     ', 230.0000,1,  53,   1,   1,0.99995,  27.4526,1.10000,0.90000,1.10000,0.90000
    74,'µá¹¦¹ûÇÅ    ', 525.0000,2,  53,   1,   1,1.00000,  32.2675,1.10000,0.90000,1.10000,0.90000
    75,'µáÈÊºÍ      ', 525.0000,1,  53,   1,   1,1.00219,  21.2943,1.10000,0.90000,1.10000,0.90000
    76,'µáÈÊºÍ2     ', 230.0000,1,  53,   1,   1,1.00350,  20.7250,1.10000,0.90000,1.10000,0.90000
    77,'µá³§¿Ú      ', 525.0000,1,  53,   1,   1,1.00000,  16.1018,1.10000,0.90000,1.10000,0.90000
    78,'µá³§¿Ú2     ', 230.0000,1,  53,   1,   1,1.00055,  13.4519,1.10000,0.90000,1.10000,0.90000
    79,'µáºÍÆ½      ', 525.0000,1,  53,   1,   1,1.00140,  18.4468,1.10000,0.90000,1.10000,0.90000
    80,'µáÂ¹³Ç      ', 525.0000,1,  53,   1,   1,1.00267,  21.5918,1.10000,0.90000,1.10000,0.90000
    81,'µáÂ¹³Ç2     ', 230.0000,1,  53,   1,   1,1.00469,  21.0172,1.10000,0.90000,1.10000,0.90000
    82,'µáÓÀ¶¨      ', 230.0000,1,  53,   1,   1,1.00325,  20.5586,1.10000,0.90000,1.10000,0.90000
    83,'µáÐ¡ÍåË®    ', 525.0000,2,  53,   1,   1,1.00000,  31.1502,1.10000,0.90000,1.10000,0.90000
    84,'µá³þÐÛ      ', 525.0000,2,  53,   1,   1,1.00000,  18.0240,1.10000,0.90000,1.10000,0.90000
    85,'µá³þÐÛ»»    ', 525.0000,1,  53,   1,   1,0.99282,  10.6088,1.10000,0.90000,1.10000,0.90000
    86,'ÔÁËë¶«»»    ', 525.0000,1,  44,   1,   1,1.01184,   6.8966,1.10000,0.90000,1.10000,0.90000
    87,'ÔÁËë¶«      ', 525.0000,3,  44,   1,   1,1.00000,   0.0000,1.10000,0.90000,1.10000,0.90000
    88,'µáÆÕ¼ª      ', 230.0000,1,  53,   1,   1,0.99850,  13.6225,1.10000,0.90000,1.10000,0.90000
    89,'µá³µ¼Ò±Ú    ', 230.0000,1,  53,   1,   1,0.99887,  14.3244,1.10000,0.90000,1.10000,0.90000
    90,'µáÀ¥Ã÷ÐÂ    ', 230.0000,2,  53,   1,   1,1.00000,  16.1397,1.10000,0.90000,1.10000,0.90000
    91,'µá²ÝÆÌ      ', 525.0000,1,  53,   1,   1,1.00100,  18.2529,1.10000,0.90000,1.10000,0.90000
    92,'µá²ÝÆÌ2     ', 230.0000,1,  53,   1,   1,1.00109,  16.4439,1.10000,0.90000,1.10000,0.90000
    94,'µáÂþÍåË®    ', 525.0000,2,  53,   1,   1,1.00000,  24.8934,1.10000,0.90000,1.10000,0.90000
    95,'ÔÁÇÈÏç      ', 525.0000,3,  44,   1,   1,1.00000,   0.0000,1.10000,0.90000,1.10000,0.90000
    96,'µáÆÕ¶ý»»    ', 525.0000,1,  53,   1,   1,0.99989,  22.0098,1.10000,0.90000,1.10000,0.90000
    97,'ÔÁÇÈÏç»»    ', 525.0000,1,  44,   1,   1,1.00513,   2.2952,1.10000,0.90000,1.10000,0.90000
    98,'µáÆÕ¶ý      ', 525.0000,1,  53,   1,   1,0.99950,  24.4439,1.10000,0.90000,1.10000,0.90000
    99,'µáÅ´Ôú¶É    ', 525.0000,2,  53,   1,   1,1.00000,  26.6749,1.10000,0.90000,1.10000,0.90000
   100,'µáË¼Ã©      ', 525.0000,2,  53,   1,   1,1.00000,  24.8857,1.10000,0.90000,1.10000,0.90000
   101,'µáË¼Ã©2     ', 230.0000,1,  53,   1,   1,0.99873,  25.6709,1.10000,0.90000,1.10000,0.90000
   102,'µáÄ«½­      ', 525.0000,1,  53,   1,   1,1.01409,  25.4756,1.10000,0.90000,1.10000,0.90000
   103,'µáÄ«½­2     ', 230.0000,1,  53,   1,   1,1.00689,  25.9487,1.10000,0.90000,1.10000,0.90000
   104,'µáÄþ¶ý      ', 230.0000,2,  53,   1,   1,1.00000,  26.6035,1.10000,0.90000,1.10000,0.90000
   105,'µá´óÓ¯½­    ', 525.0000,2,  53,   1,   1,1.00000,  44.6191,1.10000,0.90000,1.10000,0.90000
   106,'µáµÂºê      ', 525.0000,2,  53,   1,   1,1.00000,  42.0475,1.10000,0.90000,1.10000,0.90000
   108,'µá²©ÉÐ      ', 525.0000,2,  53,   1,   1,1.00000,  32.1362,1.10000,0.90000,1.10000,0.90000
   111,'µáÍ¨±¦      ', 525.0000,2,  53,   1,   1,1.00000,  21.4203,1.10000,0.90000,1.10000,0.90000
   112,'µáÍ¨±¦2     ', 230.0000,1,  53,   1,   1,0.98672,  17.8625,1.10000,0.90000,1.10000,0.90000
   113,'µáºìºÓ2     ', 230.0000,1,  53,   1,   1,0.97674,  16.5882,1.10000,0.90000,1.10000,0.90000
   115,'µá»ÝÀú      ', 525.0000,1,  53,   1,   1,1.00240,  20.4433,1.10000,0.90000,1.10000,0.90000
   116,'µáºìºÓ      ', 525.0000,2,  53,   1,   1,1.00000,  20.4766,1.10000,0.90000,1.10000,0.90000
   117,'µá´óÍÍ      ', 230.0000,1,  53,   1,   1,0.96877,  16.2342,1.10000,0.90000,1.10000,0.90000
   118,'µá¿ªÔ¶      ', 230.0000,1,  53,   1,   1,0.97713,  16.0456,1.10000,0.90000,1.10000,0.90000
   119,'µá²Ý°Ó      ', 230.0000,1,  53,   1,   1,0.97775,  15.5185,1.10000,0.90000,1.10000,0.90000
   120,'µáÄÏºþ      ', 230.0000,1,  53,   1,   1,0.98622,  17.2697,1.10000,0.90000,1.10000,0.90000
   121,'µáÎÄÉ½      ', 230.0000,2,  53,   1,   1,1.00000,  20.7295,1.10000,0.90000,1.10000,0.90000
   122,'µáÂ·µÂ      ', 230.0000,1,  53,   1,   1,1.00046,  20.7857,1.10000,0.90000,1.10000,0.90000
   123,'µáÑâÉ½      ', 525.0000,2,  53,   1,   1,1.00000,  21.3821,1.10000,0.90000,1.10000,0.90000
   124,'µáÑâÉ½2     ', 230.0000,1,  53,   1,   1,1.00065,  20.8506,1.10000,0.90000,1.10000,0.90000
   126,'µá¸»Äþ»»    ', 525.0000,2,  53,   1,   1,1.00000,  21.4219,1.10000,0.90000,1.10000,0.90000
   127,'µá±¦·å      ', 525.0000,1,  53,   1,   1,1.00338,  18.6748,1.10000,0.90000,1.10000,0.90000
   128,'µáÓñÏª      ', 525.0000,2,  53,   1,   1,1.00000,  21.1037,1.10000,0.90000,1.10000,0.90000
   129,'µáÓñÏª2     ', 230.0000,1,  53,   1,   1,1.00076,  19.4215,1.10000,0.90000,1.10000,0.90000
   130,'µá´ó³¯É½    ', 525.0000,2,  53,   1,   1,1.00000,  26.9308,1.10000,0.90000,1.10000,0.90000
   131,'µá¶ëÉ½      ', 230.0000,1,  53,   1,   1,1.00068,  19.3886,1.10000,0.90000,1.10000,0.90000
   132,'µáè½Â´      ', 230.0000,1,  53,   1,   1,0.99878,  18.1948,1.10000,0.90000,1.10000,0.90000
   133,'µá×¯ÇÇ      ', 525.0000,1,  53,   1,   1,1.00193,  17.6858,1.10000,0.90000,1.10000,0.90000
   134,'µáÄþÖÝ      ', 525.0000,2,  53,   1,   1,1.00000,  18.8927,1.10000,0.90000,1.10000,0.90000
   135,'µáÄþÖÝ2     ', 230.0000,1,  53,   1,   1,0.99946,  18.3235,1.10000,0.90000,1.10000,0.90000
   136,'µáÆßµé      ', 525.0000,2,  53,   1,   1,1.00000,  16.1018,1.10000,0.90000,1.10000,0.90000
   137,'µáÆßµé2     ', 230.0000,1,  53,   1,   1,1.00430,  12.6027,1.10000,0.90000,1.10000,0.90000
   138,'µáÀæ»¨      ', 230.0000,1,  53,   1,   1,1.00168,  11.1549,1.10000,0.90000,1.10000,0.90000
   139,'µáÇàÉ½      ', 230.0000,1,  53,   1,   1,1.00014,  10.6102,1.10000,0.90000,1.10000,0.90000
   140,'µá¹çÉ½      ', 525.0000,1,  53,   1,   1,0.99230,   9.7231,1.10000,0.90000,1.10000,0.90000
   141,'µá¹çÉ½2     ', 230.0000,1,  53,   1,   1,0.99681,  10.2714,1.10000,0.90000,1.10000,0.90000
0 / END OF BUS DATA, BEGIN LOAD DATA
     3,'1 ',1,  53,   1,   180.000,     4.500,     0.000,     0.000,     0.000,     0.000,   1,0,0
     6,'1 ',0,  45,   1,  1942.000,   468.000,     0.000,     0.000,     0.000,     0.000,   1,0,0
     8,'1 ',1,  53,   1,   126.500,     0.000,     0.000,     0.000,     0.000,     0.000,   1,0,0
    10,'1 ',1,  53,   1,    19.300,    64.900,     0.000,     0.000,     0.000,     0.000,   1,0,0
    12,'1 ',1,  53,   1,   151.400,    37.600,     0.000,     0.000,     0.000,     0.000,   1,0,0
    13,'1 ',1,  53,   1,    58.000,     0.000,     0.000,     0.000,     0.000,     0.000,   1,0,0
    14,'1 ',1,  53,   1,   230.000,     0.000,     0.000,     0.000,     0.000,     0.000,   1,0,0
    15,'1 ',1,  53,   1,    81.400,     0.000,     0.000,     0.000,     0.000,     0.000,   1,0,0
    16,'1 ',1,  53,   1,    69.000,    20.000,     0.000,     0.000,     0.000,     0.000,   1,0,0
    17,'1 ',1,  53,   1,   231.000,    51.600,     0.000,     0.000,     0.000,     0.000,   1,0,0
    18,'1 ',1,  53,   1,    43.900,     7.600,     0.000,     0.000,     0.000,     0.000,   1,0,0
    19,'1 ',1,  53,   1,   761.000,   149.200,     0.000,     0.000,     0.000,     0.000,   1,0,0
    21,'1 ',1,  53,   1,   153.400,    13.800,     0.000,     0.000,     0.000,     0.000,   1,0,0
    22,'1 ',1,  53,   1,   191.400,    22.600,     0.000,     0.000,     0.000,     0.000,   1,0,0
    23,'1 ',1,  53,   1,    81.000,     9.800,     0.000,     0.000,     0.000,     0.000,   1,0,0
    28,'1 ',1,  53,   1,   130.800,    94.000,     0.000,     0.000,     0.000,     0.000,   1,0,0
    29,'1 ',1,  53,   1,   107.000,     0.000,     0.000,     0.000,     0.000,     0.000,   1,0,0
    30,'1 ',1,  53,   1,   171.600,    46.500,     0.000,     0.000,     0.000,     0.000,   1,0,0
    31,'1 ',1,  53,   1,     5.600,     0.000,     0.000,     0.000,     0.000,     0.000,   1,0,0
    34,'1 ',1,  53,   1,    86.000,    70.000,     0.000,     0.000,     0.000,     0.000,   1,0,0
    39,'1 ',0,  44,   1,  6400.000,    27.000,     0.000,     0.000,     0.000,     0.000,   1,0,0
    40,'1 ',0,  45,   1,  1000.000,   322.300,     0.000,     0.000,     0.000,     0.000,   1,0,0
    45,'1 ',1,  53,   1,    11.700,    34.000,     0.000,     0.000,     0.000,     0.000,   1,0,0
    49,'1 ',1,  53,   1,    16.700,   350.000,     0.000,     0.000,     0.000,     0.000,   1,0,0
    51,'1 ',1,  53,   1,   190.900,     9.700,     0.000,     0.000,     0.000,     0.000,   1,0,0
    53,'1 ',1,  53,   1,   106.500,     0.000,     0.000,     0.000,     0.000,     0.000,   1,0,0
    54,'1 ',0,  45,   1,  3200.000,     0.000,     0.000,     0.000,     0.000,     0.000,   1,0,0
    59,'1 ',1,  53,   1,    26.100,     7.600,     0.000,     0.000,     0.000,     0.000,   1,0,0
    65,'1 ',1,  53,   1,    40.600,   110.600,     0.000,     0.000,     0.000,     0.000,   1,0,0
    69,'1 ',0,  44,   1,  5000.000,     0.000,     0.000,     0.000,     0.000,     0.000,   1,0,0
    71,'1 ',1,  53,   1,    51.800,    36.800,     0.000,     0.000,     0.000,     0.000,   1,0,0
    75,'1 ',1,  53,   1,    28.000,   351.000,     0.000,     0.000,     0.000,     0.000,   1,0,0
    77,'1 ',1,  53,   1,   117.000,     0.000,     0.000,     0.000,     0.000,     0.000,   1,0,0
    79,'1 ',1,  53,   1,   268.600,     0.000,     0.000,     0.000,     0.000,     0.000,   1,0,0
    80,'1 ',1,  53,   1,   115.300,     0.000,     0.000,     0.000,     0.000,     0.000,   1,0,0
    82,'1 ',1,  53,   1,    86.400,    12.200,     0.000,     0.000,     0.000,     0.000,   1,0,0
    87,'1 ',0,  44,   1,  5000.000,     0.000,     0.000,     0.000,     0.000,     0.000,   1,0,0
    88,'1 ',1,  53,   1,   206.200,    15.600,     0.000,     0.000,     0.000,     0.000,   1,0,0
    89,'1 ',1,  53,   1,    60.000,    -4.000,     0.000,     0.000,     0.000,     0.000,   1,0,0
    91,'1 ',1,  53,   1,   704.200,   285.700,     0.000,     0.000,     0.000,     0.000,   1,0,0
    91,'2 ',1,  53,   1,   594.400,     0.000,     0.000,     0.000,     0.000,     0.000,   1,0,0
    95,'1 ',0,  44,   1,  5000.000,     0.000,     0.000,     0.000,     0.000,     0.000,   1,0,0
    98,'1 ',1,  53,   1,    13.000,    86.900,     0.000,     0.000,     0.000,     0.000,   1,0,0
   102,'1 ',1,  53,   1,    19.700,   170.500,     0.000,     0.000,     0.000,     0.000,   1,0,0
   108,'1 ',1,  53,   1,    23.200,   201.000,     0.000,     0.000,     0.000,     0.000,   1,0,0
   115,'1 ',1,  53,   1,   605.300,   503.900,     0.000,     0.000,     0.000,     0.000,   1,0,0
   117,'1 ',1,  53,   1,   269.800,   200.300,     0.000,     0.000,     0.000,     0.000,   1,0,0
   118,'1 ',1,  53,   1,    69.400,     0.000,     0.000,     0.000,     0.000,     0.000,   1,0,0
   119,'1 ',1,  53,   1,   357.200,    13.200,     0.000,     0.000,     0.000,     0.000,   1,0,0
   120,'1 ',1,  53,   1,   112.800,     0.000,     0.000,     0.000,     0.000,     0.000,   1,0,0
   122,'1 ',1,  53,   1,    28.100,     7.600,     0.000,     0.000,     0.000,     0.000,   1,0,0
   127,'1 ',1,  53,   1,   516.700,     0.000,     0.000,     0.000,     0.000,     0.000,   1,0,0
   131,'1 ',1,  53,   1,     7.800,    14.900,     0.000,     0.000,     0.000,     0.000,   1,0,0
   132,'1 ',1,  53,   1,   161.400,     9.200,     0.000,     0.000,     0.000,     0.000,   1,0,0
   133,'1 ',1,  53,   1,   280.100,    72.200,     0.000,     0.000,     0.000,     0.000,   1,0,0
   138,'1 ',1,  53,   1,   132.400,     0.000,     0.000,     0.000,     0.000,     0.000,   1,0,0
   139,'1 ',1,  53,   1,    90.000,     0.000,     0.000,     0.000,     0.000,     0.000,   1,0,0
   140,'1 ',1,  53,   1,    27.000,     0.000,     0.000,     0.000,     0.000,     0.000,   1,0,0
0 / END OF LOAD DATA, BEGIN FIXED SHUNT DATA
     4,'1 ',1,     0.000,   770.000
     5,'1 ',1,     0.000,  1100.000
    37,'1 ',1,     0.000,  2900.000
    38,'1 ',1,     0.000,  3480.000
    42,'1 ',1,     0.000,  1200.000
    44,'1 ',1,     0.000,  1000.000
    47,'1 ',1,     0.000,   114.000
    55,'1 ',1,     0.000,  1680.000
    56,'1 ',1,     0.000,   500.000
    57,'1 ',1,     0.000,  2500.000
    58,'1 ',1,     0.000,  2500.000
    85,'1 ',1,     0.000,  2400.000
    86,'1 ',1,     0.000,  2590.000
    96,'1 ',1,     0.000,  2718.000
    97,'1 ',1,     0.000,  2700.000
0 / END OF FIXED SHUNT DATA, BEGIN GENERATOR DATA
     1,'1 ', -2197.850,   341.064,  9999.000, -9999.000,1.00000,     0,   100.000, 0.00000E+0, 1.00000E+0, 0.00000E+0, 0.00000E+0,1.00000,1,  100.0,  9999.000,     0.000,   1,1.0000
     7,'1 ', -1970.984,   128.492,  9999.000, -9999.000,1.00000,     0,   100.000, 0.00000E+0, 1.00000E+0, 0.00000E+0, 0.00000E+0,1.00000,1,  100.0,  9999.000,     0.000,   1,1.0000
    26,'1 ',   354.000,  -449.026,  9999.000, -9999.000,1.00000,     0,   100.000, 0.00000E+0, 1.00000E+0, 0.00000E+0, 0.00000E+0,1.00000,1,  100.0,  9999.000,     0.000,   1,1.0000
    33,'1 ',   263.000,   -94.040,  9999.000, -9999.000,1.00000,     0,   100.000, 0.00000E+0, 1.00000E+0, 0.00000E+0, 0.00000E+0,1.00000,1,  100.0,  9999.000,     0.000,   1,1.0000
    36,'1 ',  6278.000,  -129.268,  9999.000, -9999.000,1.00000,     0,   100.000, 0.00000E+0, 1.00000E+0, 0.00000E+0, 0.00000E+0,1.00000,1,  100.0,  9999.000,     0.000,   1,1.0000
    39,'1 ', -6022.692,  -869.412,  9999.000, -9999.000,1.00000,     0,   100.000, 0.00000E+0, 1.00000E+0, 0.00000E+0, 0.00000E+0,1.00000,1,  100.0,  9999.000,     0.000,   1,1.0000
    40,'1 ', -2905.882,   404.607,  9999.000, -9999.000,1.00000,     0,   100.000, 0.00000E+0, 1.00000E+0, 0.00000E+0, 0.00000E+0,1.00000,1,  100.0,  9999.000,     0.000,   1,1.0000
    46,'1 ',  2400.000,  -289.351,  9999.000, -9999.000,1.00000,     0,   100.000, 0.00000E+0, 1.00000E+0, 0.00000E+0, 0.00000E+0,1.00000,1,  100.0,  2400.000,     0.000,   1,1.0000
    47,'1 ',  1047.000,  -302.864,  9999.000, -9999.000,1.00000,     0,   100.000, 0.00000E+0, 1.00000E+0, 0.00000E+0, 0.00000E+0,1.00000,1,  100.0,  9999.000,     0.000,   1,1.0000
    48,'1 ',  1076.000,  -243.367,  9999.000, -9999.000,1.00000,     0,   100.000, 0.00000E+0, 1.00000E+0, 0.00000E+0, 0.00000E+0,1.00000,1,  100.0,  9999.000,     0.000,   1,1.0000
    50,'1 ',   117.300,    -7.235,  9999.000, -9999.000,1.00000,     0,   100.000, 0.00000E+0, 1.00000E+0, 0.00000E+0, 0.00000E+0,1.00000,1,  100.0,  9999.000,     0.000,   1,1.0000
    52,'1 ',    11.800,     3.136,  9999.000, -9999.000,1.00000,     0,   100.000, 0.00000E+0, 1.00000E+0, 0.00000E+0, 0.00000E+0,1.00000,1,  100.0,  9999.000,     0.000,   1,1.0000
    54,'1 ', -3009.081,   756.698,  9999.000, -9999.000,1.00000,     0,   100.000, 0.00000E+0, 1.00000E+0, 0.00000E+0, 0.00000E+0,1.00000,1,  100.0,  9999.000,     0.000,   1,1.0000
    60,'1 ',  1800.000,  -130.074,  9999.000, -9999.000,1.00000,     0,   100.000, 0.00000E+0, 1.00000E+0, 0.00000E+0, 0.00000E+0,1.00000,1,  100.0,  9999.000,     0.000,   1,1.0000
    61,'1 ',  1595.000,  -150.839,  9999.000, -9999.000,1.00000,     0,   100.000, 0.00000E+0, 1.00000E+0, 0.00000E+0, 0.00000E+0,1.00000,1,  100.0,  9999.000,     0.000,   1,1.0000
    62,'1 ',   416.500,  -323.000,  9999.000, -9999.000,1.00000,     0,   100.000, 0.00000E+0, 1.00000E+0, 0.00000E+0, 0.00000E+0,1.00000,1,  100.0,  9999.000,     0.000,   1,1.0000
    63,'1 ',   219.100,   -95.226,  9999.000, -9999.000,1.00000,     0,   100.000, 0.00000E+0, 1.00000E+0, 0.00000E+0, 0.00000E+0,1.00000,1,  100.0,  9999.000,     0.000,   1,1.0000
    64,'1 ',   631.900,  -442.327,  9999.000, -9999.000,1.00000,     0,   100.000, 0.00000E+0, 1.00000E+0, 0.00000E+0, 0.00000E+0,1.00000,1,  100.0,  9999.000,     0.000,   1,1.0000
    66,'1 ',  1540.000,   -79.003,  9999.000, -9999.000,1.00000,     0,   100.000, 0.00000E+0, 1.00000E+0, 0.00000E+0, 0.00000E+0,1.00000,1,  100.0,  9999.000,     0.000,   1,1.0000
    67,'1 ',  2312.000,   -57.696,  9999.000, -9999.000,1.00000,     0,   100.000, 0.00000E+0, 1.00000E+0, 0.00000E+0, 0.00000E+0,1.00000,1,  100.0,  9999.000,     0.000,   1,1.0000
    68,'1 ',  1900.000,   -57.911,  9999.000, -9999.000,1.00000,     0,   100.000, 0.00000E+0, 1.00000E+0, 0.00000E+0, 0.00000E+0,1.00000,1,  100.0,  9999.000,     0.000,   1,1.0000
    69,'1 ', -4664.353,   773.595,  9999.000, -9999.000,1.00000,     0,   100.000, 0.00000E+0, 1.00000E+0, 0.00000E+0, 0.00000E+0,1.00000,1,  100.0,  9999.000,     0.000,   1,1.0000
    72,'1 ',   861.000,  -242.060,  9999.000, -9999.000,1.00000,     0,   100.000, 0.00000E+0, 1.00000E+0, 0.00000E+0, 0.00000E+0,1.00000,1,  100.0,  9999.000,     0.000,   1,1.0000
    74,'1 ',   674.500,  -112.124,  9999.000, -9999.000,1.00000,     0,   100.000, 0.00000E+0, 1.00000E+0, 0.00000E+0, 0.00000E+0,1.00000,1,  100.0,  9999.000,     0.000,   1,1.0000
    83,'1 ',  3500.000,  -505.267,  9999.000, -9999.000,1.00000,     0,   100.000, 0.00000E+0, 1.00000E+0, 0.00000E+0, 0.00000E+0,1.00000,1,  100.0,  9999.000,     0.000,   1,1.0000
    84,'1 ',  1725.000,   -57.895,  9999.000, -9999.000,1.00000,     0,   100.000, 0.00000E+0, 1.00000E+0, 0.00000E+0, 0.00000E+0,1.00000,1,  100.0,  9999.000,     0.000,   1,1.0000
    87,'1 ', -4757.107,   -61.544,  9999.000, -9999.000,1.00000,     0,   100.000, 0.00000E+0, 1.00000E+0, 0.00000E+0, 0.00000E+0,1.00000,1,  100.0,  9999.000,     0.000,   1,1.0000
    90,'1 ',   180.800,   -46.787,  9999.000, -9999.000,1.00000,     0,   100.000, 0.00000E+0, 1.00000E+0, 0.00000E+0, 0.00000E+0,1.00000,1,  100.0,  9999.000,     0.000,   1,1.0000
    94,'1 ',  1007.000,  -282.183,  9999.000, -9999.000,1.00000,     0,   100.000, 0.00000E+0, 1.00000E+0, 0.00000E+0, 0.00000E+0,1.00000,1,  100.0,  9999.000,     0.000,   1,1.0000
    95,'1 ', -4786.024,  -243.812,  9999.000, -9999.000,1.00000,     0,   100.000, 0.00000E+0, 1.00000E+0, 0.00000E+0, 0.00000E+0,1.00000,1,  100.0,  9999.000,     0.000,   1,1.0000
    99,'1 ',  4550.000,  -206.886,  9999.000, -9999.000,1.00000,     0,   100.000, 0.00000E+0, 1.00000E+0, 0.00000E+0, 0.00000E+0,1.00000,1,  100.0,  9999.000,     0.000,   1,1.0000
   100,'1 ',   672.600,  -468.168,  9999.000, -9999.000,1.00000,     0,   100.000, 0.00000E+0, 1.00000E+0, 0.00000E+0, 0.00000E+0,1.00000,1,  100.0,  9999.000,     0.000,   1,1.0000
   104,'1 ',    96.500,   -43.681,  9999.000, -9999.000,1.00000,     0,   100.000, 0.00000E+0, 1.00000E+0, 0.00000E+0, 0.00000E+0,1.00000,1,  100.0,  9999.000,     0.000,   1,1.0000
   105,'1 ',   664.700,   -88.507,  9999.000, -9999.000,1.00000,     0,   100.000, 0.00000E+0, 1.00000E+0, 0.00000E+0, 0.00000E+0,1.00000,1,  100.0,  9999.000,     0.000,   1,1.0000
   106,'1 ',  1018.000,  -357.733,  9999.000, -9999.000,1.00000,     0,   100.000, 0.00000E+0, 1.00000E+0, 0.00000E+0, 0.00000E+0,1.00000,1,  100.0,  9999.000,     0.000,   1,1.0000
   108,'1 ',   273.100,  -547.220,  9999.000, -9999.000,1.00000,     0,   100.000, 0.00000E+0, 1.00000E+0, 0.00000E+0, 0.00000E+0,1.00000,1,  100.0,  9999.000,     0.000,   1,1.0000
   111,'1 ',   302.800,   -75.624,  9999.000, -9999.000,1.00000,     0,   100.000, 0.00000E+0, 1.00000E+0, 0.00000E+0, 0.00000E+0,1.00000,1,  100.0,  9999.000,     0.000,   1,1.0000
   116,'1 ',   307.600,  -390.183,  9999.000, -9999.000,1.00000,     0,   100.000, 0.00000E+0, 1.00000E+0, 0.00000E+0, 0.00000E+0,1.00000,1,  100.0,  9999.000,     0.000,   1,1.0000
   121,'1 ',   251.400,     3.497,  9999.000, -9999.000,1.00000,     0,   100.000, 0.00000E+0, 1.00000E+0, 0.00000E+0, 0.00000E+0,1.00000,1,  100.0,  9999.000,     0.000,   1,1.0000
   123,'1 ',   257.600,  -463.598,  9999.000, -9999.000,1.00000,     0,   100.000, 0.00000E+0, 1.00000E+0, 0.00000E+0, 0.00000E+0,1.00000,1,  100.0,  9999.000,     0.000,   1,1.0000
   126,'1 ',    12.700,  -219.095,  9999.000, -9999.000,1.00000,     0,   100.000, 0.00000E+0, 1.00000E+0, 0.00000E+0, 0.00000E+0,1.00000,1,  100.0,  9999.000,     0.000,   1,1.0000
   128,'1 ',   231.900,  -488.666,  9999.000, -9999.000,1.00000,     0,   100.000, 0.00000E+0, 1.00000E+0, 0.00000E+0, 0.00000E+0,1.00000,1,  100.0,  9999.000,     0.000,   1,1.0000
   130,'1 ',  1123.000,  -339.204,  9999.000, -9999.000,1.00000,     0,   100.000, 0.00000E+0, 1.00000E+0, 0.00000E+0, 0.00000E+0,1.00000,1,  100.0,  9999.000,     0.000,   1,1.0000
   134,'1 ',   614.800,  -161.501,  9999.000, -9999.000,1.00000,     0,   100.000, 0.00000E+0, 1.00000E+0, 0.00000E+0, 0.00000E+0,1.00000,1,  100.0,  9999.000,     0.000,   1,1.0000
   136,'1 ',   390.100,  -164.217,  9999.000, -9999.000,1.00000,     0,   100.000, 0.00000E+0, 1.00000E+0, 0.00000E+0, 0.00000E+0,1.00000,1,  100.0,  9999.000,     0.000,   1,1.0000
0 / END OF GENERATOR DATA, BEGIN BRANCH DATA
     1,     3,'1 ', 4.30000E-4, 6.16000E-3,   0.70488, 2182.38,    0.00,    0.00,  0.00000,  0.00000,  0.00000,  0.00000,1,1,  48.00,   1,0.5000,   1,0.5000
     1,     3,'2 ', 4.30000E-4, 6.16000E-3,   0.70488, 2182.38,    0.00,    0.00,  0.00000,  0.00000,  0.00000,  0.00000,1,1,  48.00,   1,0.5000,   1,0.5000
     2,     3,'1 ', 5.00000E-4, 4.64000E-3,   0.53592, 2182.38,    0.00,    0.00,  0.00000,  0.00000,  0.00000,  0.00000,1,1,   0.00,   1,0.5000,   1,0.5000
     2,     3,'2 ', 5.00000E-4, 4.64000E-3,   0.53592, 2182.38,    0.00,    0.00,  0.00000,  0.00000,  0.00000,  0.00000,1,1,   0.00,   1,0.5000,   1,0.5000
     3,     4,'1 ', 1.40000E-4, 2.59000E-3,   0.23804, 3073.52,    0.00,    0.00,  0.00000,  0.00000,  0.00000,  0.00000,1,2,  20.00,   1,0.5000,   1,0.5000
     3,     4,'2 ', 1.40000E-4, 2.59000E-3,   0.23804, 3073.52,    0.00,    0.00,  0.00000,  0.00000,  0.00000,  0.00000,1,2,  20.00,   1,0.5000,   1,0.5000
     3,     8,'1 ', 7.80000E-4, 8.22000E-3,   0.95050, 2727.98,    0.00,    0.00,  0.00000,  0.00000,  0.00000,  0.00000,1,2,  80.00,   1,0.5000,   1,0.5000
     3,     8,'2 ', 7.80000E-4, 8.22000E-3,   0.95050, 2727.98,    0.00,    0.00,  0.00000,  0.00000,  0.00000,  0.00000,1,2,  80.00,   1,0.5000,   1,0.5000
     4,   140,'1 ', 4.50000E-4, 6.59000E-3,   0.69336, 3073.52,    0.00,    0.00,  0.00000,  0.00000,  0.00000,  0.00000,1,2,  60.00,   1,0.5000,   1,0.5000
     4,   140,'2 ', 4.50000E-4, 6.59000E-3,   0.69336, 3073.52,    0.00,    0.00,  0.00000,  0.00000,  0.00000,  0.00000,1,2,  60.00,   1,0.5000,   1,0.5000
     5,     6,'1 ', 4.50000E-4, 6.59000E-3,   0.69336, 3073.52,    0.00,    0.00,  0.00000,  0.00000,  0.00000,  0.00000,1,2,  60.00,   1,0.5000,   1,0.5000
     5,     6,'2 ', 4.50000E-4, 6.59000E-3,   0.69336, 3073.52,    0.00,    0.00,  0.00000,  0.00000,  0.00000,  0.00000,1,2,  60.00,   1,0.5000,   1,0.5000
     6,     7,'1 ', 5.00000E-4, 4.64000E-3,   0.53592, 2182.38,    0.00,    0.00,  0.00000,  0.00000,  0.00000,  0.00000,1,2,   0.00,   1,1.0000
     8,    10,'1 ', 5.00000E-4, 5.90000E-3,   0.70110, 2727.98,    0.00,    0.00,  0.00000,  0.00000,  0.00000,  0.00000,1,2,   0.00,   1,0.5000,   1,0.5000
     8,    10,'2 ', 5.00000E-4, 5.90000E-3,   0.70110, 2727.98,    0.00,    0.00,  0.00000,  0.00000,  0.00000,  0.00000,1,2,   0.00,   1,0.5000,   1,0.5000
     8,    19,'1 ', 2.60000E-4, 4.19000E-3,   0.45982, 1818.65,    0.00,    0.00,  0.00000,  0.00000,  0.00000,  0.00000,1,2,  53.90,   1,0.5000,   1,0.5000
     8,    19,'2 ', 2.60000E-4, 4.19000E-3,   0.45982, 1818.65,    0.00,    0.00,  0.00000,  0.00000,  0.00000,  0.00000,1,2,  53.90,   1,0.5000,   1,0.5000
     9,    15,'1 ', 3.40000E-3, 1.77000E-2,   0.05920,  462.11,    0.00,    0.00,  0.00000,  0.00000,  0.00000,  0.00000,1,2,   0.00,   1,0.5000,   1,0.5000
     9,    15,'2 ', 3.46000E-3, 2.01000E-2,   0.06266,  478.05,    0.00,    0.00,  0.00000,  0.00000,  0.00000,  0.00000,1,2,   0.00,   1,0.5000,   1,0.5000
     9,    16,'1 ', 2.24000E-3, 1.30100E-2,   0.04748,  545.77,    0.00,    0.00,  0.00000,  0.00000,  0.00000,  0.00000,1,1,  22.30,   1,0.5000,   1,0.5000
     9,    16,'2 ', 2.16000E-3, 1.29100E-2,   0.04756,  545.77,    0.00,    0.00,  0.00000,  0.00000,  0.00000,  0.00000,1,1,  22.30,   1,0.5000,   1,0.5000
    10,    77,'1 ', 6.00000E-4, 7.75000E-3,   0.87908, 2727.98,    0.00,    0.00,  0.00000,  0.00000,  0.00000,  0.00000,1,2,  75.00,   1,0.5000,   1,0.5000
    10,    77,'2 ', 6.00000E-4, 7.75000E-3,   0.87908, 2727.98,    0.00,    0.00,  0.00000,  0.00000,  0.00000,  0.00000,1,2,  75.00,   1,0.5000,   1,0.5000
    11,    12,'1 ', 2.31000E-3, 1.67700E-2,   0.05238,  537.80,    0.00,    0.00,  0.00000,  0.00000,  0.00000,  0.00000,1,1,  29.80,   1,0.5000,   1,0.5000
    11,    12,'2 ', 2.26000E-3, 1.64400E-2,   0.05480,  537.80,    0.00,    0.00,  0.00000,  0.00000,  0.00000,  0.00000,1,1,  29.20,   1,0.5000,   1,0.5000
    11,    51,'1 ', 3.64000E-3, 2.49000E-2,   0.07074,  537.80,    0.00,    0.00,  0.00000,  0.00000,  0.00000,  0.00000,1,1,  40.20,   1,0.5000,   1,0.5000
    11,    51,'2 ', 3.72000E-3, 2.53600E-2,   0.07766,  537.80,    0.00,    0.00,  0.00000,  0.00000,  0.00000,  0.00000,1,1,  40.90,   1,0.5000,   1,0.5000
    11,    52,'1 ', 2.71000E-3, 2.35100E-2,   0.07904,  637.40,    0.00,    0.00,  0.00000,  0.00000,  0.00000,  0.00000,1,1,  40.10,   1,0.5000,   1,0.5000
    12,    13,'1 ', 2.30000E-3, 1.45000E-2,   0.05140,  537.80,    0.00,    0.00,  0.00000,  0.00000,  0.00000,  0.00000,1,1,   0.00,   1,0.5000,   1,0.5000
    12,    13,'2 ', 2.48000E-3, 1.59800E-2,   0.05570,  537.80,    0.00,    0.00,  0.00000,  0.00000,  0.00000,  0.00000,1,1,   0.00,   1,0.5000,   1,0.5000
    13,    14,'1 ', 1.28000E-3, 8.23000E-3,   0.02938,  537.80,    0.00,    0.00,  0.00000,  0.00000,  0.00000,  0.00000,1,1,   0.00,   1,0.5000,   1,0.5000
    13,    14,'2 ', 1.40000E-3, 8.10000E-3,   0.02938,  537.80,    0.00,    0.00,  0.00000,  0.00000,  0.00000,  0.00000,1,1,   0.00,   1,0.5000,   1,0.5000
    14,    15,'1 ', 1.70000E-3, 1.12000E-2,   0.03560,  478.05,    0.00,    0.00,  0.00000,  0.00000,  0.00000,  0.00000,1,1,   0.00,   1,0.5000,   1,0.5000
    14,    15,'2 ', 1.70000E-3, 1.06000E-2,   0.03560,  478.05,    0.00,    0.00,  0.00000,  0.00000,  0.00000,  0.00000,1,1,   0.00,   1,0.5000,   1,0.5000
    14,    18,'1 ', 2.10000E-3, 1.21000E-2,   0.04180,  478.05,    0.00,    0.00,  0.00000,  0.00000,  0.00000,  0.00000,1,2,   0.00,   1,0.5000,   1,0.5000
    14,    18,'2 ', 2.10000E-3, 1.21000E-2,   0.04180,  478.05,    0.00,    0.00,  0.00000,  0.00000,  0.00000,  0.00000,1,2,   0.00,   1,0.5000,   1,0.5000
    14,    23,'1 ', 5.40000E-3, 3.44000E-2,   0.11180,  545.77,    0.00,    0.00,  0.00000,  0.00000,  0.00000,  0.00000,1,2,   0.00,   1,0.5000,   1,0.5000
    14,    23,'2 ', 5.50000E-3, 3.45000E-2,   0.11300,  545.77,    0.00,    0.00,  0.00000,  0.00000,  0.00000,  0.00000,1,2,   0.00,   1,0.5000,   1,0.5000
    16,    17,'1 ', 2.74000E-3, 1.73600E-2,   0.06008,  545.77,    0.00,    0.00,  0.00000,  0.00000,  0.00000,  0.00000,1,2,  28.10,   1,0.5000,   1,0.5000
    17,    18,'1 ', 2.10000E-3, 1.21000E-2,   0.04180,  478.05,    0.00,    0.00,  0.00000,  0.00000,  0.00000,  0.00000,1,2,   0.00,   1,0.5000,   1,0.5000
    17,    18,'2 ', 2.10000E-3, 1.21000E-2,   0.04180,  478.05,    0.00,    0.00,  0.00000,  0.00000,  0.00000,  0.00000,1,2,   0.00,   1,0.5000,   1,0.5000
    18,    20,'1 ', 1.02000E-3, 6.80000E-3,   0.02246,  756.91,    0.00,    0.00,  0.00000,  0.00000,  0.00000,  0.00000,1,2,  11.40,   1,0.5000,   1,0.5000
    18,    20,'2 ', 1.02000E-3, 6.80000E-3,   0.02246,  756.91,    0.00,    0.00,  0.00000,  0.00000,  0.00000,  0.00000,1,2,  11.40,   1,0.5000,   1,0.5000
    18,    20,'3 ', 6.60000E-4, 6.75000E-3,   0.01776,  756.91,    0.00,    0.00,  0.00000,  0.00000,  0.00000,  0.00000,1,2,  11.70,   1,0.5000,   1,0.5000
    19,    24,'1 ', 3.30000E-4, 4.97000E-3,   0.58712, 1818.65,    0.00,    0.00,  0.00000,  0.00000,  0.00000,  0.00000,1,1,  52.00,   1,0.5000,   1,0.5000
    19,    24,'2 ', 3.30000E-4, 4.97000E-3,   0.58712, 1818.65,    0.00,    0.00,  0.00000,  0.00000,  0.00000,  0.00000,1,1,  52.00,   1,0.5000,   1,0.5000
    20,    21,'1 ', 1.53000E-3, 8.73000E-3,   0.02922,  545.77,    0.00,    0.00,  0.00000,  0.00000,  0.00000,  0.00000,1,1,   1.50,   1,0.5000,   1,0.5000
    20,    21,'2 ', 1.53000E-3, 8.73000E-3,   0.02922,  545.77,    0.00,    0.00,  0.00000,  0.00000,  0.00000,  0.00000,1,1,   1.50,   1,0.5000,   1,0.5000
    21,    22,'1 ', 5.98000E-3, 3.65600E-2,   0.11870,  478.05,    0.00,    0.00,  0.00000,  0.00000,  0.00000,  0.00000,1,2,   0.00,   1,0.5000,   1,0.5000
    21,    22,'2 ', 5.98000E-3, 3.65600E-2,   0.11870,  478.05,    0.00,    0.00,  0.00000,  0.00000,  0.00000,  0.00000,1,2,   0.00,   1,0.5000,   1,0.5000
    22,    25,'1 ', 2.30000E-3, 1.37000E-2,   0.05464,  478.05,    0.00,    0.00,  0.00000,  0.00000,  0.00000,  0.00000,1,2,   0.00,   1,0.5000,   1,0.5000
    22,    25,'2 ', 2.20000E-3, 1.38000E-2,   0.05432,  478.05,    0.00,    0.00,  0.00000,  0.00000,  0.00000,  0.00000,1,2,   0.00,   1,0.5000,   1,0.5000
    23,    25,'1 ', 1.80000E-3, 1.09000E-2,   0.03280,  545.77,    0.00,    0.00,  0.00000,  0.00000,  0.00000,  0.00000,1,2,   0.00,   1,0.5000,   1,0.5000
    23,    25,'2 ', 1.80000E-3, 1.12000E-2,   0.03340,  545.77,    0.00,    0.00,  0.00000,  0.00000,  0.00000,  0.00000,1,2,   0.00,   1,0.5000,   1,0.5000
    24,    26,'1 ', 8.20000E-4, 1.43100E-2,   1.63898, 3091.71,    0.00,    0.00,  0.00000,  0.00000,  0.00000,  0.00000,1,2,   0.00,   1,0.5000,   1,0.5000
    24,    26,'2 ', 8.20000E-4, 1.43100E-2,   0.00000, 3091.71,    0.00,    0.00,  0.00000,  0.00000,  0.00000,  0.00000,1,2,   0.00,   1,0.5000,   1,0.5000
    24,    35,'1 ', 1.12000E-3, 2.04500E-2,   2.33100, 3364.51,    0.00,    0.00,  0.00000,  0.00000,  0.00000,  0.00000,1,2,  20.50,   1,0.5000,   1,0.5000
    24,    49,'1 ', 3.10000E-4, 3.53000E-3,   0.75572, 3637.31,    0.00,    0.00,  0.00000,  0.00000,  0.00000,  0.00000,1,2,  48.50,   1,0.5000,   1,0.5000
    24,    49,'2 ', 3.10000E-4, 3.53000E-3,   0.75572, 3637.31,    0.00,    0.00,  0.00000,  0.00000,  0.00000,  0.00000,1,2,  48.50,   1,0.5000,   1,0.5000
    26,    31,'1 ', 6.80000E-4, 1.16500E-2,   1.57432, 3409.98,    0.00,    0.00,  0.00000,  0.00000,  0.00000,  0.00000,1,2,   0.00,   1,0.5000,   1,0.5000
    26,    31,'2 ', 6.80000E-4, 1.16500E-2,   1.57432, 3409.98,    0.00,    0.00,  0.00000,  0.00000,  0.00000,  0.00000,1,2,   0.00,   1,0.5000,   1,0.5000
    26,    35,'1 ', 1.08000E-3, 1.56000E-2,   1.79240, 2727.98,    0.00,    0.00,  0.00000,  0.00000,  0.00000,  0.00000,1,2,   0.00,   1,0.5000,   1,0.5000
    27,    28,'1 ', 8.60000E-4, 3.93000E-3,   0.02230,  657.31,    0.00,    0.00,  0.00000,  0.00000,  0.00000,  0.00000,1,1,   0.00,   1,0.5000,   1,0.5000
    27,    28,'2 ', 8.60000E-4, 3.93000E-3,   0.02230,  657.31,    0.00,    0.00,  0.00000,  0.00000,  0.00000,  0.00000,1,1,   0.00,   1,0.5000,   1,0.5000
    28,    29,'1 ', 1.33000E-3, 1.00700E-2,   0.03480,  637.40,    0.00,    0.00,  0.00000,  0.00000,  0.00000,  0.00000,1,2,  17.60,   1,0.5000,   1,0.5000
    28,    29,'2 ', 1.33000E-3, 1.00700E-2,   0.03480,  657.31,    0.00,    0.00,  0.00000,  0.00000,  0.00000,  0.00000,1,2,  17.60,   1,0.5000,   1,0.5000
    29,    30,'1 ', 4.61000E-3, 3.49400E-2,   0.12078,  330.65,    0.00,    0.00,  0.00000,  0.00000,  0.00000,  0.00000,1,1,  61.00,   1,0.5000,   1,0.5000
    29,    30,'2 ', 4.84000E-3, 3.66600E-2,   0.12672,  330.65,    0.00,    0.00,  0.00000,  0.00000,  0.00000,  0.00000,1,1,  64.00,   1,0.5000,   1,0.5000
    30,    32,'1 ', 2.16000E-3, 1.63200E-2,   0.05644,  649.35,    0.00,    0.00,  0.00000,  0.00000,  0.00000,  0.00000,1,1,  28.50,   1,0.5000,   1,0.5000
    31,    33,'1 ', 8.60000E-4, 1.19200E-2,   1.42344, 2727.98,    0.00,    0.00,  0.00000,  0.00000,  0.00000,  0.00000,1,2,   0.00,   1,0.5000,   1,0.5000
    31,    34,'1 ', 1.30000E-3, 9.85000E-3,   0.03406, 1482.20,    0.00,    0.00,  0.00000,  0.00000,  0.00000,  0.00000,1,2,  17.20,   1,0.5000,   1,0.5000
    31,    34,'2 ', 1.89000E-2, 9.85300E-2,   0.17984,  741.10,    0.00,    0.00,  0.00000,  0.00000,  0.00000,  0.00000,1,2,  12.50,   1,0.5000,   1,0.5000
    31,    36,'1 ', 3.30000E-4, 4.84000E-3,   0.76048, 3073.52,    0.00,    0.00,  0.00000,  0.00000,  0.00000,  0.00000,1,2,  45.00,   1,0.5000,   1,0.5000
    31,    37,'1 ', 4.60000E-4, 5.31000E-3,   0.65528, 3073.52,    0.00,    0.00,  0.00000,  0.00000,  0.00000,  0.00000,1,1,  53.30,   1,0.5000,   1,0.5000
    33,    34,'1 ', 1.40000E-4, 2.59000E-3,   0.29564, 3091.71,    0.00,    0.00,  0.00000,  0.00000,  0.00000,  0.00000,1,1,   2.60,   1,0.5000,   1,0.5000
    36,    37,'1 ', 5.50000E-4, 9.20000E-3,   1.10240, 3073.52,    0.00,    0.00,  0.00000,  0.00000,  0.00000,  0.00000,1,1,  89.00,   1,0.5000,   1,0.5000
    36,    37,'2 ', 5.50000E-4, 9.12000E-3,   1.09714, 3073.52,    0.00,    0.00,  0.00000,  0.00000,  0.00000,  0.00000,1,1,  89.00,   1,0.5000,   1,0.5000
    36,    37,'3 ', 5.50000E-4, 9.12000E-3,   1.09714, 3073.52,    0.00,    0.00,  0.00000,  0.00000,  0.00000,  0.00000,1,1,  89.00,   1,0.5000,   1,0.5000
    38,    39,'1 ', 2.60000E-4, 4.19000E-3,   0.45982, 1818.65,    0.00,    0.00,  0.00000,  0.00000,  0.00000,  0.00000,1,1,  53.90,   1,0.5000,   1,0.5000
    38,    39,'2 ', 2.60000E-4, 4.19000E-3,   0.45982, 1818.65,    0.00,    0.00,  0.00000,  0.00000,  0.00000,  0.00000,1,1,  53.90,   1,0.5000,   1,0.5000
    38,    39,'3 ', 2.60000E-4, 4.19000E-3,   0.45982, 1818.65,    0.00,    0.00,  0.00000,  0.00000,  0.00000,  0.00000,1,1,  53.90,   1,0.5000,   1,0.5000
    38,    39,'4 ', 2.60000E-4, 4.19000E-3,   0.45982, 1818.65,    0.00,    0.00,  0.00000,  0.00000,  0.00000,  0.00000,1,1,  53.90,   1,0.5000,   1,0.5000
    40,    44,'1 ', 1.60000E-4, 1.55000E-3,   0.16970,    0.00,    0.00,    0.00,  0.00000,  0.00000,  0.00000,  0.00000,1,2,   0.00,   1,0.5000,   1,0.5000
    40,    44,'2 ', 1.60000E-4, 1.55000E-3,   0.16970,    0.00,    0.00,    0.00,  0.00000,  0.00000,  0.00000,  0.00000,1,2,   0.00,   1,0.5000,   1,0.5000
    42,    45,'1 ', 1.60000E-4, 1.55000E-3,   0.16970,    0.00,    0.00,    0.00,  0.00000,  0.00000,  0.00000,  0.00000,1,1,   0.00,   1,0.5000,   1,0.5000
    42,    45,'2 ', 1.60000E-4, 1.55000E-3,   0.16970,    0.00,    0.00,    0.00,  0.00000,  0.00000,  0.00000,  0.00000,1,1,   0.00,   1,0.5000,   1,0.5000
    45,    46,'1 ', 3.70000E-4, 6.79000E-3,   0.77588, 3364.51,    0.00,    0.00,  0.00000,  0.00000,  0.00000,  0.00000,1,2,  66.00,   1,0.5000,   1,0.5000
    45,    46,'2 ', 3.60000E-4, 6.68000E-3,   0.76412, 3364.51,    0.00,    0.00,  0.00000,  0.00000,  0.00000,  0.00000,1,2,  65.00,   1,0.5000,   1,0.5000
    45,    46,'3 ', 3.70000E-4, 6.79000E-3,   0.77588, 3364.51,    0.00,    0.00,  0.00000,  0.00000,  0.00000,  0.00000,1,2,  66.00,   1,0.5000,   1,0.5000
    45,    46,'4 ', 3.60000E-4, 6.68000E-3,   0.76412, 3364.51,    0.00,    0.00,  0.00000,  0.00000,  0.00000,  0.00000,1,2,  65.00,   1,0.5000,   1,0.5000
    45,    75,'1 ', 9.00000E-5, 1.65000E-3,   0.18810, 3364.51,    0.00,    0.00,  0.00000,  0.00000,  0.00000,  0.00000,1,2,  17.00,   1,0.5000,   1,0.5000
    45,    75,'2 ', 9.00000E-5, 1.75000E-3,   0.19984, 3364.51,    0.00,    0.00,  0.00000,  0.00000,  0.00000,  0.00000,1,2,  16.00,   1,0.5000,   1,0.5000
    45,    75,'3 ', 9.00000E-5, 1.65000E-3,   0.18810, 3364.51,    0.00,    0.00,  0.00000,  0.00000,  0.00000,  0.00000,1,2,  17.00,   1,0.5000,   1,0.5000
    45,    75,'4 ', 9.00000E-5, 1.75000E-3,   0.19984, 3364.51,    0.00,    0.00,  0.00000,  0.00000,  0.00000,  0.00000,1,2,  16.00,   1,0.5000,   1,0.5000
    47,    48,'1 ', 5.30000E-4, 7.18000E-3,   0.83924, 2727.98,    0.00,    0.00,  0.00000,  0.00000,  0.00000,  0.00000,1,1,  70.30,   1,0.5000,   1,0.5000
    47,    75,'1 ', 1.17000E-3, 1.65700E-2,   1.93676, 2727.98,    0.00,    0.00,  0.00000,  0.00000,  0.00000,  0.00000,1,1, 159.00,   1,0.5000,   1,0.5000
    48,    75,'1 ', 6.60000E-4, 9.47000E-3,   1.42768, 3091.71,    0.00,    0.00,  0.00000,  0.00000,  0.00000,  0.00000,1,1,  92.20,   1,0.5000,   1,0.5000
    48,    75,'2 ', 6.60000E-4, 9.47000E-3,   1.42768, 3091.71,    0.00,    0.00,  0.00000,  0.00000,  0.00000,  0.00000,1,1,  92.20,   1,0.5000,   1,0.5000
    49,    75,'1 ', 1.58000E-3, 1.81200E-2,   3.87980, 3637.31,    0.00,    0.00,  0.00000,  0.00000,  0.00000,  0.00000,1,2, 249.00,   1,0.5000,   1,0.5000
    49,    75,'2 ', 1.58000E-3, 1.81200E-2,   3.87980, 3637.31,    0.00,    0.00,  0.00000,  0.00000,  0.00000,  0.00000,1,2, 249.00,   1,0.5000,   1,0.5000
    50,    51,'1 ', 3.06000E-3, 1.74700E-2,   0.05844,  545.77,    0.00,    0.00,  0.00000,  0.00000,  0.00000,  0.00000,1,1,   3.00,   1,0.5000,   1,0.5000
    50,    51,'2 ', 3.06000E-3, 1.74700E-2,   0.05844,  545.77,    0.00,    0.00,  0.00000,  0.00000,  0.00000,  0.00000,1,1,   3.00,   1,0.5000,   1,0.5000
    50,    78,'1 ', 5.10000E-3, 2.91100E-2,   0.09740,  545.77,    0.00,    0.00,  0.00000,  0.00000,  0.00000,  0.00000,1,1,   5.00,   1,0.5000,   1,0.5000
    50,    78,'2 ', 5.10000E-3, 2.91100E-2,   0.09740,  545.77,    0.00,    0.00,  0.00000,  0.00000,  0.00000,  0.00000,1,1,   5.00,   1,0.5000,   1,0.5000
    51,    52,'1 ', 7.66000E-3, 4.36700E-2,   0.14610,  557.72,    0.00,    0.00,  0.00000,  0.00000,  0.00000,  0.00000,1,2,   7.50,   1,0.5000,   1,0.5000
    52,    53,'1 ', 3.98000E-3, 2.27100E-2,   0.07596,  557.72,    0.00,    0.00,  0.00000,  0.00000,  0.00000,  0.00000,1,1,   3.90,   1,0.5000,   1,0.5000
    53,    78,'1 ', 1.60000E-2, 1.08200E-1,   0.19640,  278.86,    0.00,    0.00,  0.00000,  0.00000,  0.00000,  0.00000,1,1,   0.00,   1,0.5000,   1,0.5000
    54,    56,'1 ', 4.60000E-4, 5.31000E-3,   0.65528, 3073.52,    0.00,    0.00,  0.00000,  0.00000,  0.00000,  0.00000,1,2,  53.30,   1,0.5000,   1,0.5000
    54,    56,'2 ', 4.60000E-4, 5.31000E-3,   0.65528, 3073.52,    0.00,    0.00,  0.00000,  0.00000,  0.00000,  0.00000,1,2,  53.30,   1,0.5000,   1,0.5000
    55,    59,'1 ', 4.60000E-4, 5.31000E-3,   0.65528, 3073.52,    0.00,    0.00,  0.00000,  0.00000,  0.00000,  0.00000,1,1,  53.30,   1,0.5000,   1,0.5000
    55,    59,'2 ', 4.60000E-4, 5.31000E-3,   0.65528, 3073.52,    0.00,    0.00,  0.00000,  0.00000,  0.00000,  0.00000,1,1,  53.30,   1,0.5000,   1,0.5000
    57,    65,'1 ', 6.90000E-4, 1.25300E-2,   1.40308, 3637.31,    0.00,    0.00,  0.00000,  0.00000,  0.00000,  0.00000,1,1, 121.00,   1,0.5000,   1,0.5000
    57,    65,'2 ', 6.90000E-4, 1.25300E-2,   1.40308, 3637.31,    0.00,    0.00,  0.00000,  0.00000,  0.00000,  0.00000,1,1, 121.00,   1,0.5000,   1,0.5000
    57,    65,'3 ', 6.90000E-4, 1.25300E-2,   1.40308, 3637.31,    0.00,    0.00,  0.00000,  0.00000,  0.00000,  0.00000,1,1, 121.00,   1,0.5000,   1,0.5000
    57,    65,'4 ', 6.90000E-4, 1.25300E-2,   1.40308, 3637.31,    0.00,    0.00,  0.00000,  0.00000,  0.00000,  0.00000,1,1, 121.00,   1,0.5000,   1,0.5000
    58,    69,'1 ', 6.90000E-4, 1.25300E-2,   1.40308, 3637.31,    0.00,    0.00,  0.00000,  0.00000,  0.00000,  0.00000,1,1, 121.00,   1,0.5000,   1,0.5000
    58,    69,'2 ', 6.90000E-4, 1.25300E-2,   1.40308, 3637.31,    0.00,    0.00,  0.00000,  0.00000,  0.00000,  0.00000,1,1, 121.00,   1,0.5000,   1,0.5000
    59,    60,'1 ', 7.90000E-4, 1.32000E-2,   1.49100, 3091.71,    0.00,    0.00,  0.00000,  0.00000,  0.00000,  0.00000,1,2, 125.00,   1,0.5000,   1,0.5000
    59,    61,'1 ', 6.20000E-4, 1.04100E-2,   1.17610, 3091.71,    0.00,    0.00,  0.00000,  0.00000,  0.00000,  0.00000,1,2,  98.60,   1,0.5000,   1,0.5000
    59,    61,'2 ', 6.50000E-4, 1.04000E-2,   1.17604, 3091.71,    0.00,    0.00,  0.00000,  0.00000,  0.00000,  0.00000,1,2,  98.60,   1,0.5000,   1,0.5000
    59,    62,'1 ', 4.10000E-4, 6.88000E-3,   0.77652, 3091.71,    0.00,    0.00,  0.00000,  0.00000,  0.00000,  0.00000,1,2,  65.10,   1,0.5000,   1,0.5000
    59,    62,'2 ', 4.10000E-4, 6.88000E-3,   0.77652, 3091.71,    0.00,    0.00,  0.00000,  0.00000,  0.00000,  0.00000,1,2,  65.10,   1,0.5000,   1,0.5000
    60,    61,'1 ', 3.80000E-4, 6.35000E-3,   0.71648, 3091.71,    0.00,    0.00,  0.00000,  0.00000,  0.00000,  0.00000,1,1,   0.00,   1,0.5000,   1,0.5000
    62,    63,'1 ', 8.30000E-4, 1.52600E-2,   1.73976, 3091.71,    0.00,    0.00,  0.00000,  0.00000,  0.00000,  0.00000,1,2, 153.00,   1,0.5000,   1,0.5000
    62,    64,'1 ', 4.50000E-4, 6.53000E-3,   0.77650, 3091.71,    0.00,    0.00,  0.00000,  0.00000,  0.00000,  0.00000,1,1,  63.50,   1,0.5000,   1,0.5000
    62,    64,'2 ', 4.50000E-4, 6.53000E-3,   0.77650, 3091.71,    0.00,    0.00,  0.00000,  0.00000,  0.00000,  0.00000,1,1,  63.50,   1,0.5000,   1,0.5000
    64,    65,'1 ', 6.90000E-4, 1.25300E-2,   1.40308, 3637.31,    0.00,    0.00,  0.00000,  0.00000,  0.00000,  0.00000,1,1, 121.00,   1,0.5000,   1,0.5000
    64,    65,'2 ', 6.90000E-4, 1.25300E-2,   1.40308, 3637.31,    0.00,    0.00,  0.00000,  0.00000,  0.00000,  0.00000,1,1, 121.00,   1,0.5000,   1,0.5000
    64,    72,'1 ', 7.40000E-4, 1.01900E-2,   1.14880, 2727.98,    0.00,    0.00,  0.00000,  0.00000,  0.00000,  0.00000,1,1,   0.00,   1,0.5000,   1,0.5000
    64,    75,'1 ', 1.08000E-3, 1.31800E-2,   2.62580, 3455.44,    0.00,    0.00,  0.00000,  0.00000,  0.00000,  0.00000,1,1, 169.00,   1,0.5000,   1,0.5000
    64,    75,'2 ', 1.08000E-3, 1.31800E-2,   2.62580, 3455.44,    0.00,    0.00,  0.00000,  0.00000,  0.00000,  0.00000,1,1, 169.00,   1,0.5000,   1,0.5000
    65,    66,'1 ', 6.90000E-4, 1.25300E-2,   1.40308, 3637.31,    0.00,    0.00,  0.00000,  0.00000,  0.00000,  0.00000,1,2, 121.00,   1,0.5000,   1,0.5000
    65,    66,'2 ', 6.90000E-4, 1.25300E-2,   1.40308, 3637.31,    0.00,    0.00,  0.00000,  0.00000,  0.00000,  0.00000,1,2, 121.00,   1,0.5000,   1,0.5000
    65,    67,'1 ', 7.60000E-4, 1.09200E-2,   1.25562, 3455.44,    0.00,    0.00,  0.00000,  0.00000,  0.00000,  0.00000,1,2, 105.00,   1,0.5000,   1,0.5000
    65,    67,'2 ', 7.60000E-4, 1.09200E-2,   1.25562, 3455.44,    0.00,    0.00,  0.00000,  0.00000,  0.00000,  0.00000,1,2, 105.00,   1,0.5000,   1,0.5000
    65,    68,'1 ', 6.50000E-4, 9.66000E-3,   1.10418, 2746.17,    0.00,    0.00,  0.00000,  0.00000,  0.00000,  0.00000,1,2,   9.70,   1,0.5000,   1,0.5000
    65,    68,'2 ', 6.50000E-4, 9.66000E-3,   1.10418, 2746.17,    0.00,    0.00,  0.00000,  0.00000,  0.00000,  0.00000,1,2,   9.70,   1,0.5000,   1,0.5000
    70,    71,'1 ', 5.20000E-3, 3.94000E-2,   0.13520,  478.05,    0.00,    0.00,  0.00000,  0.00000,  0.00000,  0.00000,1,1,   0.00,   1,0.5000,   1,0.5000
    70,    71,'2 ', 5.20000E-3, 3.94000E-2,   0.13520,  478.05,    0.00,    0.00,  0.00000,  0.00000,  0.00000,  0.00000,1,1,   0.00,   1,0.5000,   1,0.5000
    71,    73,'1 ', 3.10000E-3, 2.40000E-2,   0.08220,  637.40,    0.00,    0.00,  0.00000,  0.00000,  0.00000,  0.00000,1,2,  42.00,   1,0.5000,   1,0.5000
    71,    73,'2 ', 3.10000E-3, 2.40000E-2,   0.08220,  637.40,    0.00,    0.00,  0.00000,  0.00000,  0.00000,  0.00000,1,2,  42.00,   1,0.5000,   1,0.5000
    72,    74,'1 ', 1.19000E-3, 1.19200E-2,   1.44536, 1363.99,    0.00,    0.00,  0.00000,  0.00000,  0.00000,  0.00000,1,2,   0.00,   1,0.5000,   1,0.5000
    72,    79,'1 ', 1.42000E-3, 2.18600E-2,   2.37400, 2746.17,    0.00,    0.00,  0.00000,  0.00000,  0.00000,  0.00000,1,1, 207.00,   1,0.5000,   1,0.5000
    72,    80,'1 ', 7.80000E-4, 1.16600E-2,   1.33184, 2746.17,    0.00,    0.00,  0.00000,  0.00000,  0.00000,  0.00000,1,1,  11.70,   1,0.5000,   1,0.5000
    75,    77,'1 ', 1.05000E-3, 1.26100E-2,   2.42620, 3455.44,    0.00,    0.00,  0.00000,  0.00000,  0.00000,  0.00000,1,1, 159.00,   1,0.5000,   1,0.5000
    75,    77,'2 ', 1.05000E-3, 1.26100E-2,   2.42620, 3455.44,    0.00,    0.00,  0.00000,  0.00000,  0.00000,  0.00000,1,1, 159.00,   1,0.5000,   1,0.5000
    76,    82,'1 ', 1.78000E-3, 1.35200E-2,   0.04672,  673.25,    0.00,    0.00,  0.00000,  0.00000,  0.00000,  0.00000,1,1,  23.60,   1,0.5000,   1,0.5000
    76,    82,'2 ', 1.78000E-3, 1.35200E-2,   0.04672,  673.25,    0.00,    0.00,  0.00000,  0.00000,  0.00000,  0.00000,1,1,  23.60,   1,0.5000,   1,0.5000
    77,    79,'1 ', 5.60000E-4, 7.16000E-3,   0.78880, 2746.17,    0.00,    0.00,  0.00000,  0.00000,  0.00000,  0.00000,1,1,   0.00,   1,0.5000,   1,0.5000
    77,    79,'2 ', 5.60000E-4, 7.16000E-3,   0.78880, 2746.17,    0.00,    0.00,  0.00000,  0.00000,  0.00000,  0.00000,1,1,   0.00,   1,0.5000,   1,0.5000
    77,   136,'1 ', 4.42630E-4, 6.19683E-3,   0.76997,    0.00,    0.00,    0.00,  0.00000,  0.00000,  0.00000,  0.00000,1,2,  61.00,   1,0.5000,   1,0.5000
    78,    88,'1 ', 1.73000E-3, 9.90000E-3,   0.03506,  478.05,    0.00,    0.00,  0.00000,  0.00000,  0.00000,  0.00000,1,1,   0.00,   1,0.5000,   1,0.5000
    78,    88,'2 ', 1.80000E-3, 1.11100E-2,   0.03676,  478.05,    0.00,    0.00,  0.00000,  0.00000,  0.00000,  0.00000,1,1,   0.00,   1,0.5000,   1,0.5000
    79,    80,'1 ', 5.00000E-4, 7.47000E-3,   0.85374, 2746.17,    0.00,    0.00,  0.00000,  0.00000,  0.00000,  0.00000,1,2,   7.50,   1,0.5000,   1,0.5000
    79,    83,'1 ', 1.64000E-3, 1.90700E-2,   3.42300,    0.00,    0.00,    0.00,  0.00000,  0.00000,  0.00000,  0.00000,1,2,  23.50,   1,0.5000,   1,0.5000
    79,    84,'1 ', 1.60000E-4, 1.55000E-3,   0.16970, 3273.58,    0.00,    0.00,  0.00000,  0.00000,  0.00000,  0.00000,1,2,  13.30,   1,0.5000,   1,0.5000
    79,    84,'2 ', 1.10000E-4, 1.37000E-3,   0.17022, 3273.58,    0.00,    0.00,  0.00000,  0.00000,  0.00000,  0.00000,1,2,  13.30,   1,0.5000,   1,0.5000
    79,    91,'1 ', 3.70000E-4, 4.37000E-3,   0.49930, 2727.98,    0.00,    0.00,  0.00000,  0.00000,  0.00000,  0.00000,1,1,   0.00,   1,0.5000,   1,0.5000
    79,    91,'2 ', 3.70000E-4, 4.37000E-3,   0.49930, 2727.98,    0.00,    0.00,  0.00000,  0.00000,  0.00000,  0.00000,1,1,   0.00,   1,0.5000,   1,0.5000
    81,    82,'1 ', 5.10000E-3, 2.91100E-2,   0.09740,  545.77,    0.00,    0.00,  0.00000,  0.00000,  0.00000,  0.00000,1,2,   5.00,   1,0.5000,   1,0.5000
    81,    82,'2 ', 9.83000E-3, 5.12400E-2,   0.09352,  336.62,    0.00,    0.00,  0.00000,  0.00000,  0.00000,  0.00000,1,2,   6.50,   1,0.5000,   1,0.5000
    83,    84,'1 ', 1.67000E-3, 1.94300E-2,   4.23380, 3273.58,    0.00,    0.00,  0.00000,  0.00000,  0.00000,  0.00000,1,1,   0.00,   1,0.5000,   1,0.5000
    83,    84,'2 ', 1.67000E-3, 1.94300E-2,   4.23380, 3273.58,    0.00,    0.00,  0.00000,  0.00000,  0.00000,  0.00000,1,1,   0.00,   1,0.5000,   1,0.5000
    84,    85,'1 ', 7.40000E-4, 1.01900E-2,   1.14880, 2727.98,    0.00,    0.00,  0.00000,  0.00000,  0.00000,  0.00000,1,2,   0.00,   1,0.5000,   1,0.5000
    84,    85,'2 ', 7.40000E-4, 1.01900E-2,   1.14880, 2727.98,    0.00,    0.00,  0.00000,  0.00000,  0.00000,  0.00000,1,2,   0.00,   1,0.5000,   1,0.5000
    84,    85,'3 ', 7.40000E-4, 1.01900E-2,   1.14880, 2727.98,    0.00,    0.00,  0.00000,  0.00000,  0.00000,  0.00000,1,2,   0.00,   1,0.5000,   1,0.5000
    84,    85,'4 ', 7.40000E-4, 1.01900E-2,   1.14880, 2727.98,    0.00,    0.00,  0.00000,  0.00000,  0.00000,  0.00000,1,2,   0.00,   1,0.5000,   1,0.5000
    86,    87,'1 ', 7.40000E-4, 1.01900E-2,   1.14880, 2727.98,    0.00,    0.00,  0.00000,  0.00000,  0.00000,  0.00000,1,2,   0.00,   1,0.5000,   1,0.5000
    86,    87,'2 ', 7.40000E-4, 1.01900E-2,   1.14880, 2727.98,    0.00,    0.00,  0.00000,  0.00000,  0.00000,  0.00000,1,2,   0.00,   1,0.5000,   1,0.5000
    86,    87,'3 ', 7.40000E-4, 1.01900E-2,   1.14880, 2727.98,    0.00,    0.00,  0.00000,  0.00000,  0.00000,  0.00000,1,2,   0.00,   1,0.5000,   1,0.5000
    86,    87,'4 ', 7.40000E-4, 1.01900E-2,   1.14880, 2727.98,    0.00,    0.00,  0.00000,  0.00000,  0.00000,  0.00000,1,2,   0.00,   1,0.5000,   1,0.5000
    88,    89,'1 ', 1.64000E-3, 9.36000E-3,   0.03132,  545.77,    0.00,    0.00,  0.00000,  0.00000,  0.00000,  0.00000,1,2,  16.10,   1,0.5000,   1,0.5000
    88,    89,'2 ', 1.63000E-3, 9.31000E-3,   0.03116,  545.77,    0.00,    0.00,  0.00000,  0.00000,  0.00000,  0.00000,1,2,  16.00,   1,0.5000,   1,0.5000
    89,    90,'1 ', 3.47000E-3, 1.97900E-2,   0.06620,  545.77,    0.00,    0.00,  0.00000,  0.00000,  0.00000,  0.00000,1,1,  34.00,   1,0.5000,   1,0.5000
    89,    90,'2 ', 3.38000E-3, 1.92600E-2,   0.06444,  545.77,    0.00,    0.00,  0.00000,  0.00000,  0.00000,  0.00000,1,1,  33.10,   1,0.5000,   1,0.5000
    90,    92,'1 ', 1.50000E-3, 7.70000E-3,   0.02596,  497.96,    0.00,    0.00,  0.00000,  0.00000,  0.00000,  0.00000,1,2,   0.00,   1,0.5000,   1,0.5000
    90,    92,'2 ', 1.81000E-3, 7.84000E-3,   0.02632,  497.96,    0.00,    0.00,  0.00000,  0.00000,  0.00000,  0.00000,1,2,   0.00,   1,0.5000,   1,0.5000
    91,    94,'1 ', 1.78000E-3, 2.29400E-2,   2.53900, 1136.66,    0.00,    0.00,  0.00000,  0.00000,  0.00000,  0.00000,1,1, 217.00,   1,0.5000,   1,0.5000
    91,    94,'2 ', 1.78000E-3, 2.29400E-2,   2.53900, 1136.66,    0.00,    0.00,  0.00000,  0.00000,  0.00000,  0.00000,1,1, 217.00,   1,0.5000,   1,0.5000
    91,   127,'1 ', 5.20000E-4, 5.36000E-3,   0.61688, 2546.11,    0.00,    0.00,  0.00000,  0.00000,  0.00000,  0.00000,1,1,   0.00,   1,0.5000,   1,0.5000
    91,   127,'2 ', 5.20000E-4, 5.36000E-3,   0.61688, 2546.11,    0.00,    0.00,  0.00000,  0.00000,  0.00000,  0.00000,1,1,   0.00,   1,0.5000,   1,0.5000
    95,    97,'1 ', 1.70000E-4, 2.53000E-3,   0.35454, 3618.21,    0.00,    0.00,  0.00000,  0.00000,  0.00000,  0.00000,1,1,   0.00,   1,0.5000,   1,0.5000
    95,    97,'2 ', 1.70000E-4, 2.53000E-3,   0.35454, 3618.21,    0.00,    0.00,  0.00000,  0.00000,  0.00000,  0.00000,1,1,   0.00,   1,0.5000,   1,0.5000
    95,    97,'3 ', 1.70000E-4, 2.53000E-3,   0.35454, 3618.21,    0.00,    0.00,  0.00000,  0.00000,  0.00000,  0.00000,1,1,   0.00,   1,0.5000,   1,0.5000
    96,    98,'1 ', 1.70000E-4, 2.53000E-3,   0.35454, 3618.21,    0.00,    0.00,  0.00000,  0.00000,  0.00000,  0.00000,1,2,   0.00,   1,0.5000,   1,0.5000
    96,    98,'2 ', 1.70000E-4, 2.53000E-3,   0.35454, 3618.21,    0.00,    0.00,  0.00000,  0.00000,  0.00000,  0.00000,1,2,   0.00,   1,0.5000,   1,0.5000
    96,    98,'3 ', 1.70000E-4, 2.53000E-3,   0.35454, 3618.21,    0.00,    0.00,  0.00000,  0.00000,  0.00000,  0.00000,1,2,   0.00,   1,0.5000,   1,0.5000
    98,    99,'1 ', 1.70000E-4, 2.53000E-3,   0.35454, 3618.21,    0.00,    0.00,  0.00000,  0.00000,  0.00000,  0.00000,1,2,   0.00,   1,0.5000,   1,0.5000
    98,    99,'2 ', 1.70000E-4, 2.60000E-3,   0.34466, 3618.21,    0.00,    0.00,  0.00000,  0.00000,  0.00000,  0.00000,1,2,   0.00,   1,0.5000,   1,0.5000
    98,    99,'3 ', 1.70000E-4, 2.55000E-3,   0.34616, 3618.21,    0.00,    0.00,  0.00000,  0.00000,  0.00000,  0.00000,1,2,   0.00,   1,0.5000,   1,0.5000
    98,   100,'1 ', 2.30000E-4, 3.14000E-3,   0.40288, 3618.21,    0.00,    0.00,  0.00000,  0.00000,  0.00000,  0.00000,1,2,   0.00,   1,0.5000,   1,0.5000
    98,   100,'2 ', 2.10000E-4, 3.16000E-3,   0.41040, 3618.21,    0.00,    0.00,  0.00000,  0.00000,  0.00000,  0.00000,1,2,   0.00,   1,0.5000,   1,0.5000
   100,   102,'1 ', 5.70000E-4, 8.58000E-3,   0.97734, 2727.98,    0.00,    0.00,  0.00000,  0.00000,  0.00000,  0.00000,1,1,   0.00,   1,0.5000,   1,0.5000
   100,   102,'2 ', 5.70000E-4, 8.58000E-3,   0.97734, 2727.98,    0.00,    0.00,  0.00000,  0.00000,  0.00000,  0.00000,1,1,   0.00,   1,0.5000,   1,0.5000
   100,   111,'1 ', 1.93000E-3, 2.37700E-2,   0.00000, 3273.58,    0.00,    0.00,  0.00000,  0.00000,  0.00000,  0.00000,1,1,   0.00,   1,0.5000,   1,0.5000
   100,   111,'2 ', 1.93000E-3, 2.37700E-2,   0.00000, 3273.58,    0.00,    0.00,  0.00000,  0.00000,  0.00000,  0.00000,1,1,   0.00,   1,0.5000,   1,0.5000
   101,   104,'1 ', 5.12000E-3, 2.67100E-2,   0.04874,  324.67,    0.00,    0.00,  0.00000,  0.00000,  0.00000,  0.00000,1,2,  33.90,   1,0.5000,   1,0.5000
   102,   108,'1 ', 1.00000E-3, 1.22000E-2,   3.50000,    0.00,    0.00,    0.00,  0.00000,  0.00000,  0.00000,  0.00000,1,1,   0.00,   1,0.5000,   1,0.5000
   102,   108,'2 ', 1.00000E-3, 1.22000E-2,   3.50000,    0.00,    0.00,    0.00,  0.00000,  0.00000,  0.00000,  0.00000,1,1,   0.00,   1,0.5000,   1,0.5000
   102,   115,'1 ', 2.60000E-3, 3.09000E-2,   6.06800, 3273.58,    0.00,    0.00,  0.00000,  0.00000,  0.00000,  0.00000,1,1,   0.00,   1,0.5000,   1,0.5000
...
0 / END OF BRANCH DATA, BEGIN TRANSFORMER DATA
     9,     8,     0,'1 ',3,2,1, 2.13000E-3,-3.10000E-3,2,'            ',1,   1,0.5000,   1,0.5000,   0,1.0000,   0,1.0000,'            '
 2.25000E-4, 1.73250E-1,   750.00
1.00000, 230.000,   0.000,   750.00,     0.00,     0.00, 0,      0, 1.10000, 0.90000, 1.10000, 0.90000,  33, 0, 0.00000, 0.00000,  0.000
1.00000, 525.000
    11,    10,     0,'1 ',3,2,1, 2.45000E-3,-4.50000E-3,2,'            ',1,   1,0.5000,   1,0.5000,   0,1.0000,   0,1.0000,'            '
 1.10000E-3, 1.45000E-1,  1000.00
...